<?xml version="1.0" encoding="UTF-8"?>
<!DOCTYPE transitSchedule SYSTEM "http://www.matsim.org/files/dtd/transitSchedule_v1.dtd">
<transitSchedule>
<transitStops>
  <stopFacility id="192" x="05" y="0" linkRefId="1-2"/>
  <stopFacility id="293" x="15" y="0" linkRefId="2-3"/>
  <stopFacility id="495" x="2005" y="0" linkRefId="4-5"/>
  <stopFacility id="596" x="2015" y="0" linkRefId="5-6"/>
  <stopFacility id="192-2" x="05" y="1" linkRefId="2-1"/>
  <stopFacility id="293-2" x="15" y="1" linkRefId="3-2"/>
  <stopFacility id="495-2" x="2005" y="1" linkRefId="5-4"/>
  <stopFacility id="596-2" x="2015" y="1" linkRefId="6-5"/>
</transitStops>
<transitLine id="gelb">
  <transitRoute id="gelb_1">
    <transportMode>train</transportMode>
    <routeProfile>
      <stop refId="192" departureOffset="00:00:00" arrivalOffset="00:00:00" awaitDeparture="true"/>
      <stop refId="293" departureOffset="00:00:30" arrivalOffset="00:00:30" awaitDeparture="true"/>
      <stop refId="495" departureOffset="00:10:00" arrivalOffset="00:10:00" awaitDeparture="true"/>
      <stop refId="596" departureOffset="00:10:30" arrivalOffset="00:10:30" awaitDeparture="true"/>
      <stop refId="495-2" departureOffset="00:20:00" arrivalOffset="00:20:00" awaitDeparture="true"/>
      <stop refId="293-2" departureOffset="00:20:30" arrivalOffset="00:20:30" awaitDeparture="true"/>
      <stop refId="192-2" departureOffset="00:25:00" arrivalOffset="00:25:00" awaitDeparture="true"/>
    </routeProfile>
    <route>
      <link refId="1-2"/>
      <link refId="2-3"/>
      <link refId="3-4"/>
      <link refId="4-5"/>
      <link refId="5-6"/>
      <link refId="6-5"/>
      <link refId="5-4"/>
      <link refId="4-3"/>
      <link refId="3-2"/>
      <link refId="2-1"/>
    </route>
    <departures>
      <departure id="1000" departureTime="05:05:00" vehicleRefId="1000"/>
      <departure id="1001" departureTime="05:15:00" vehicleRefId="1001"/>
      <departure id="1002" departureTime="05:30:00" vehicleRefId="1002"/>
      <departure id="1003" departureTime="05:45:00" vehicleRefId="1003"/>
      <departure id="1004" departureTime="06:00:00" vehicleRefId="1004"/>
      <departure id="1005" departureTime="06:15:00" vehicleRefId="1005"/>
    </departures>
  </transitRoute>
</transitLine>
</transitSchedule>
