<?xml version="1.0" encoding="UTF-8"?>
<!DOCTYPE network SYSTEM "http://www.matsim.org/files/dtd/network_v2.dtd">
<network>

<!-- ====================================================================== -->

	<nodes>
		<node id="pt_0001" x="1061718.0444855648" y="6342810.351780114" >
		</node>
		<node id="pt_0002" x="1061714.2747624535" y="6342838.032369719" >
		</node>
		<node id="pt_0003" x="1055396.158989777" y="6350638.071198715" >
		</node>
		<node id="pt_0004" x="1059209.4469003752" y="6348428.009435324" >
		</node>
		<node id="pt_0005" x="1059209.2676938944" y="6348393.027074657" >
		</node>
		<node id="pt_0006" x="1058247.3548941673" y="6353301.936435989" >
		</node>
		<node id="pt_0007" x="1058275.162595932" y="6353305.713899034" >
		</node>
		<node id="pt_0009" x="1057841.3474626467" y="6343361.078179372" >
		</node>
		<node id="pt_0010" x="1050143.2552531704" y="6345310.672102984" >
		</node>
		<node id="pt_0011" x="1050116.0073967918" y="6345260.819718135" >
		</node>
		<node id="pt_0012" x="1050067.6614813553" y="6344907.193655901" >
		</node>
		<node id="pt_0013" x="1050872.3344152812" y="6359498.016407931" >
		</node>
		<node id="pt_0014" x="1050915.3767791032" y="6359525.218540521" >
		</node>
		<node id="pt_0015" x="1055071.9948669262" y="6352628.310996435" >
		</node>
		<node id="pt_0016" x="1048794.079609876" y="6359891.196306026" >
		</node>
		<node id="pt_0017" x="1048841.5431927508" y="6359807.370200853" >
		</node>
		<node id="pt_0018" x="1061387.588723069" y="6342997.676704011" >
		</node>
		<node id="pt_0019" x="1061455.9070389639" y="6342985.549261906" >
		</node>
		<node id="pt_0020" x="1054198.062137729" y="6350922.943048958" >
		</node>
		<node id="pt_0021" x="1062911.9604242975" y="6355184.629975071" >
		</node>
		<node id="pt_0022" x="1062867.8217923734" y="6355223.697773934" >
		</node>
		<node id="pt_0023" x="1052947.256742367" y="6354346.464526789" >
		</node>
		<node id="pt_0024" x="1052912.30026771" y="6354226.764089454" >
		</node>
		<node id="pt_0025" x="1052880.385413405" y="6354285.603366113" >
		</node>
		<node id="pt_0027" x="1053965.5784727994" y="6350440.651836235" >
		</node>
		<node id="pt_0028" x="1057003.637499261" y="6353066.654733518" >
		</node>
		<node id="pt_0029" x="1050490.7807072077" y="6358197.706333678" >
		</node>
		<node id="pt_0030" x="1050530.468686115" y="6358346.20142453" >
		</node>
		<node id="pt_0031" x="1049166.327137739" y="6359767.44202678" >
		</node>
		<node id="pt_0032" x="1049219.7914799987" y="6359799.403091971" >
		</node>
		<node id="pt_0033" x="1055739.6958785509" y="6352907.958130618" >
		</node>
		<node id="pt_0035" x="1056210.3072103313" y="6347871.750839797" >
		</node>
		<node id="pt_0036" x="1056109.8606574386" y="6347976.57148858" >
		</node>
		<node id="pt_0037" x="1054830.7663752446" y="6349244.888902795" >
		</node>
		<node id="pt_0038" x="1056857.0054968693" y="6352272.128168985" >
		</node>
		<node id="pt_0039" x="1056785.3177262598" y="6352228.590812324" >
		</node>
		<node id="pt_0040" x="1051000.42984086" y="6358164.6662841635" >
		</node>
		<node id="pt_0041" x="1050775.992499026" y="6358211.186930413" >
		</node>
		<node id="pt_0042" x="1059631.8690481524" y="6347605.811556369" >
		</node>
		<node id="pt_0043" x="1059527.8927744087" y="6347586.043335601" >
		</node>
		<node id="pt_0045" x="1059459.5177285932" y="6353841.186253445" >
		</node>
		<node id="pt_0046" x="1057987.1432898145" y="6347322.853743113" >
		</node>
		<node id="pt_0048" x="1054951.0960642044" y="6354935.774672903" >
		</node>
		<node id="pt_0049" x="1054971.513896539" y="6354957.701292475" >
		</node>
		<node id="pt_0050" x="1053809.8523583647" y="6354424.332465716" >
		</node>
		<node id="pt_0051" x="1053781.771270106" y="6354527.654618474" >
		</node>
		<node id="pt_0052" x="1061708.3516483107" y="6350949.4474542625" >
		</node>
		<node id="pt_0053" x="1061708.353107587" y="6351062.230623444" >
		</node>
		<node id="pt_0054" x="1060823.6945915911" y="6350844.519459706" >
		</node>
		<node id="pt_0055" x="1056403.7743384345" y="6351790.180074698" >
		</node>
		<node id="pt_0056" x="1061853.1887970143" y="6355238.163014293" >
		</node>
		<node id="pt_0057" x="1061866.0440683495" y="6355198.190312871" >
		</node>
		<node id="pt_0059" x="1053549.440173999" y="6349052.046986351" >
		</node>
		<node id="pt_0060" x="1053360.1377215707" y="6349071.684746287" >
		</node>
		<node id="pt_0061" x="1060333.1012663927" y="6354121.499383431" >
		</node>
		<node id="pt_0062" x="1058691.5618727957" y="6353440.112438424" >
		</node>
		<node id="pt_0064" x="1055305.0504021854" y="6350874.947234018" >
		</node>
		<node id="pt_0065" x="1054583.336836555" y="6350527.274713793" >
		</node>
		<node id="pt_0066" x="1053803.532656919" y="6350217.024879395" >
		</node>
		<node id="pt_0067" x="1053747.2395496422" y="6350113.6170361405" >
		</node>
		<node id="pt_0068" x="1061419.5611433988" y="6355974.002288441" >
		</node>
		<node id="pt_0069" x="1061417.6000928313" y="6355965.839143861" >
		</node>
		<node id="pt_0070" x="1060270.1355727096" y="6352559.96567318" >
		</node>
		<node id="pt_0071" x="1060244.1359784272" y="6352556.422175273" >
		</node>
		<node id="pt_0072" x="1052362.1250214782" y="6359481.965760842" >
		</node>
		<node id="pt_0073" x="1052328.1210171608" y="6359442.435552471" >
		</node>
		<node id="pt_0074" x="1054045.2731762351" y="6348709.516770828" >
		</node>
		<node id="pt_0075" x="1053692.092449335" y="6348701.450035869" >
		</node>
		<node id="pt_0076" x="1053847.4619887883" y="6348645.690207254" >
		</node>
		<node id="pt_0077" x="1053927.8724066056" y="6348693.715347134" >
		</node>
		<node id="pt_0078" x="1053846.593459684" y="6348368.232065838" >
		</node>
		<node id="pt_0078b" x="1053961.0925830437" y="6348291.191475369" >
		</node>
		<node id="pt_0079" x="1053829.2748215036" y="6348405.361031367" >
		</node>
		<node id="pt_0080" x="1055004.1407103334" y="6350836.586535136" >
		</node>
		<node id="pt_0081" x="1054985.6387455198" y="6350800.265494942" >
		</node>
		<node id="pt_0082" x="1056356.6375738825" y="6353266.551680381" >
		</node>
		<node id="pt_0083" x="1055664.7952922764" y="6359482.795886308" >
		</node>
		<node id="pt_0084" x="1055655.1997988168" y="6359562.682211674" >
		</node>
		<node id="pt_0085" x="1056005.5300790025" y="6352430.876063309" >
		</node>
		<node id="pt_0086" x="1055997.780716008" y="6352397.129060194" >
		</node>
		<node id="pt_0088" x="1050554.518552116" y="6358821.776594096" >
		</node>
		<node id="pt_0089" x="1050596.4488406386" y="6358816.131920831" >
		</node>
		<node id="pt_0090" x="1057695.6185998726" y="6349351.38062026" >
		</node>
		<node id="pt_0091" x="1057812.4009516272" y="6347479.596092205" >
		</node>
		<node id="pt_0093" x="1059660.190652335" y="6347438.251345917" >
		</node>
		<node id="pt_0094" x="1065901.7152668843" y="6340319.845961114" >
		</node>
		<node id="pt_0095" x="1064131.8976148935" y="6340457.719936894" >
		</node>
		<node id="pt_0096" x="1064123.5634768277" y="6340473.498965197" >
		</node>
		<node id="pt_0098" x="1055897.905488709" y="6349545.630038973" >
		</node>
		<node id="pt_0099" x="1055128.5968069537" y="6348132.779147202" >
		</node>
		<node id="pt_0100" x="1059217.885347786" y="6345113.822844339" >
		</node>
		<node id="pt_0101" x="1059139.0672595464" y="6345176.425726455" >
		</node>
		<node id="pt_0102" x="1056674.1061478793" y="6358504.451191755" >
		</node>
		<node id="pt_0103" x="1056675.9309122267" y="6358527.25150537" >
		</node>
		<node id="pt_0104" x="1057064.8698623604" y="6353427.895504659" >
		</node>
		<node id="pt_0105" x="1060134.58637097" y="6352144.521996998" >
		</node>
		<node id="pt_0106" x="1053514.410959149" y="6353621.240511712" >
		</node>
		<node id="pt_0107" x="1058548.0049814591" y="6349963.155076181" >
		</node>
		<node id="pt_0108" x="1052474.6606271234" y="6358126.181849229" >
		</node>
		<node id="pt_0109" x="1058338.181378873" y="6351354.390125272" >
		</node>
		<node id="pt_0110" x="1058365.891125334" y="6351213.811976287" >
		</node>
		<node id="pt_0111" x="1057651.4794433156" y="6352879.3632730795" >
		</node>
		<node id="pt_0112" x="1057719.9714739844" y="6352919.10278134" >
		</node>
		<node id="pt_0113" x="1054405.2193692373" y="6348063.486954592" >
		</node>
		<node id="pt_0114" x="1054112.3948903265" y="6349002.662354173" >
		</node>
		<node id="pt_0115" x="1052779.079590765" y="6350154.776662966" >
		</node>
		<node id="pt_0116" x="1052771.8128479356" y="6350080.521689644" >
		</node>
		<node id="pt_0118" x="1052114.3738049793" y="6359172.386472371" >
		</node>
		<node id="pt_0119" x="1052101.2510030554" y="6359174.002037793" >
		</node>
		<node id="pt_0120" x="1053267.2918820314" y="6349505.6445076605" >
		</node>
		<node id="pt_0121" x="1052853.1475689714" y="6349658.543014987" >
		</node>
		<node id="pt_0122" x="1053582.6149997804" y="6349899.803233391" >
		</node>
		<node id="pt_0123" x="1052438.90489734" y="6358318.664461462" >
		</node>
		<node id="pt_0124" x="1052465.029674153" y="6358142.923547189" >
		</node>
		<node id="pt_0125" x="1052427.2776891594" y="6358313.716454908" >
		</node>
		<node id="pt_0126" x="1054233.8752515572" y="6351086.738649615" >
		</node>
		<node id="pt_0127" x="1054473.482563808" y="6351090.8498399425" >
		</node>
		<node id="pt_0128" x="1054303.3073386177" y="6351288.890126203" >
		</node>
		<node id="pt_0129" x="1064587.4035125724" y="6353677.474052886" >
		</node>
		<node id="pt_0131" x="1057150.08358006" y="6354120.529206766" >
		</node>
		<node id="pt_0132" x="1055630.3803588457" y="6355545.161555755" >
		</node>
		<node id="pt_0133" x="1055602.8156268143" y="6359922.050990858" >
		</node>
		<node id="pt_0134" x="1053328.4420942087" y="6352863.37213496" >
		</node>
		<node id="pt_0135" x="1055609.177578325" y="6359956.74084214" >
		</node>
		<node id="pt_0136" x="1053295.7970826842" y="6352776.676266035" >
		</node>
		<node id="pt_0138" x="1062608.0888564617" y="6352385.276982929" >
		</node>
		<node id="pt_0139" x="1053419.7967676898" y="6353167.673852422" >
		</node>
		<node id="pt_0140" x="1053401.3797483684" y="6353176.467993295" >
		</node>
		<node id="pt_0145" x="1053823.9127254924" y="6349653.8063835995" >
		</node>
		<node id="pt_0146" x="1055058.2355465526" y="6348723.10327247" >
		</node>
		<node id="pt_0148" x="1054446.5858214335" y="6349384.7757205665" >
		</node>
		<node id="pt_0149" x="1054499.9721853316" y="6348092.03206838" >
		</node>
		<node id="pt_0150" x="1060763.3561385623" y="6352506.544773758" >
		</node>
		<node id="pt_0151" x="1060821.9025540752" y="6350943.520006746" >
		</node>
		<node id="pt_0152" x="1054377.1375695432" y="6351595.363271997" >
		</node>
		<node id="pt_0153" x="1054386.0983363555" y="6351711.572107195" >
		</node>
		<node id="pt_0154" x="1059937.2566749405" y="6344618.336517254" >
		</node>
		<node id="pt_0155" x="1059912.2722711004" y="6344620.581089129" >
		</node>
		<node id="pt_0156" x="1058497.9512061898" y="6350150.317053942" >
		</node>
		<node id="pt_0157" x="1058487.8671653694" y="6348671.727422749" >
		</node>
		<node id="pt_0158" x="1058732.626574894" y="6347522.038231772" >
		</node>
		<node id="pt_0159" x="1058533.443227235" y="6349911.561388308" >
		</node>
		<node id="pt_0160" x="1058560.5183205334" y="6347468.243034079" >
		</node>
		<node id="pt_0161" x="1058401.4506904054" y="6350130.452154446" >
		</node>
		<node id="pt_0162" x="1056783.8155315262" y="6346387.622104891" >
		</node>
		<node id="pt_0164" x="1054404.613886959" y="6354275.681251587" >
		</node>
		<node id="pt_0165" x="1061260.636861152" y="6353573.662359051" >
		</node>
		<node id="pt_0166" x="1061219.6803565505" y="6353589.497389772" >
		</node>
		<node id="pt_0167" x="1053596.6664914102" y="6348998.647464504" >
		</node>
		<node id="pt_0168" x="1053485.2504555436" y="6348947.585609876" >
		</node>
		<node id="pt_0170" x="1061545.5753033976" y="6353097.165996126" >
		</node>
		<node id="pt_0171" x="1058119.445339158" y="6346082.372761968" >
		</node>
		<node id="pt_0172" x="1058180.0871253125" y="6346035.335771799" >
		</node>
		<node id="pt_0173" x="1056583.880557396" y="6359586.013767169" >
		</node>
		<node id="pt_0174" x="1064003.218670899" y="6354294.34286839" >
		</node>
		<node id="pt_0175" x="1063996.5735951657" y="6354288.918733475" >
		</node>
		<node id="pt_0176" x="1061545.5925742672" y="6352934.759571814" >
		</node>
		<node id="pt_0177" x="1061557.9998259153" y="6352803.369768978" >
		</node>
		<node id="pt_0179" x="1061540.7431829104" y="6353055.903591657" >
		</node>
		<node id="pt_0180" x="1060380.702554599" y="6354178.742112065" >
		</node>
		<node id="pt_0181" x="1060612.9456284293" y="6354317.567089707" >
		</node>
		<node id="pt_0182" x="1054122.366181266" y="6348997.24035248" >
		</node>
		<node id="pt_0183" x="1053329.2485252975" y="6360393.694507171" >
		</node>
		<node id="pt_0184" x="1053400.8905059597" y="6360390.962909746" >
		</node>
		<node id="pt_0185" x="1056408.809061368" y="6359005.207237146" >
		</node>
		<node id="pt_0186" x="1056301.3840499101" y="6359031.229681531" >
		</node>
		<node id="pt_0187" x="1058860.8238008777" y="6351338.551273213" >
		</node>
		<node id="pt_0188" x="1058998.9793603662" y="6351287.411434983" >
		</node>
		<node id="pt_0189" x="1054267.8564290681" y="6354240.315529988" >
		</node>
		<node id="pt_0193" x="1057029.458763896" y="6351540.002127411" >
		</node>
		<node id="pt_0194" x="1053511.7199346283" y="6349240.885024901" >
		</node>
		<node id="pt_0194b" x="1053542.5131207788" y="6349286.740546192" >
		</node>
		<node id="pt_0194c" x="1053491.8454369288" y="6349210.027085219" >
		</node>
		<node id="pt_0196" x="1058585.8498428126" y="6348458.36586856" >
		</node>
		<node id="pt_0197" x="1057525.4619349246" y="6345741.480575873" >
		</node>
		<node id="pt_0198" x="1057498.4044868546" y="6345877.637857955" >
		</node>
		<node id="pt_0199" x="1057734.1717361002" y="6346513.931233559" >
		</node>
		<node id="pt_0200" x="1057702.9109426662" y="6346567.205511661" >
		</node>
		<node id="pt_0201" x="1059686.1325692902" y="6343968.525214619" >
		</node>
		<node id="pt_0202" x="1059561.139988456" y="6344071.091132584" >
		</node>
		<node id="pt_0203" x="1057344.6784765902" y="6346138.730249198" >
		</node>
		<node id="pt_0204" x="1057290.1905193543" y="6346140.379623779" >
		</node>
		<node id="pt_0205" x="1063106.3316543594" y="6342703.036521971" >
		</node>
		<node id="pt_0207" x="1057361.7275685617" y="6352659.642427974" >
		</node>
		<node id="pt_0208" x="1057384.856638676" y="6352666.161530012" >
		</node>
		<node id="pt_0209" x="1056261.0524248085" y="6354318.040925851" >
		</node>
		<node id="pt_0210" x="1056351.6366676204" y="6354262.652649897" >
		</node>
		<node id="pt_0211" x="1056291.283643537" y="6354335.665452809" >
		</node>
		<node id="pt_0212" x="1059649.313607066" y="6356775.527344111" >
		</node>
		<node id="pt_0213" x="1059662.1485158526" y="6356767.127329486" >
		</node>
		<node id="pt_0214" x="1050708.8720515503" y="6359136.73238458" >
		</node>
		<node id="pt_0215" x="1050719.264273706" y="6359127.981893968" >
		</node>
		<node id="pt_0216" x="1053482.4194435286" y="6355561.759490859" >
		</node>
		<node id="pt_0217" x="1053465.2613026411" y="6355501.947141588" >
		</node>
		<node id="pt_0218" x="1051138.929866171" y="6358231.746436664" >
		</node>
		<node id="pt_0219" x="1055353.782339478" y="6351111.5373959355" >
		</node>
		<node id="pt_0220" x="1055331.5604461625" y="6351111.919198221" >
		</node>
		<node id="pt_0221" x="1057859.3974157108" y="6353035.00207751" >
		</node>
		<node id="pt_0222" x="1057954.9492761488" y="6353093.078841886" >
		</node>
		<node id="pt_0223" x="1060837.3044923795" y="6343313.00183795" >
		</node>
		<node id="pt_0224" x="1060918.9398891502" y="6343293.656369418" >
		</node>
		<node id="pt_0225" x="1060952.2316450863" y="6356007.123932673" >
		</node>
		<node id="pt_0226" x="1060977.303867932" y="6356008.293732147" >
		</node>
		<node id="pt_0227" x="1062357.7654958437" y="6355572.279307903" >
		</node>
		<node id="pt_0228" x="1062349.591837919" y="6355604.997097891" >
		</node>
		<node id="pt_0229" x="1058793.6204137462" y="6344457.507411328" >
		</node>
		<node id="pt_0230" x="1058802.9011407865" y="6344493.721812656" >
		</node>
		<node id="pt_0231" x="1060832.1895595314" y="6353311.034597107" >
		</node>
		<node id="pt_0232" x="1060886.4455908635" y="6353278.965769185" >
		</node>
		<node id="pt_0233" x="1053496.6201130922" y="6349769.85671497" >
		</node>
		<node id="pt_0238" x="1053427.4079007837" y="6356503.654549264" >
		</node>
		<node id="pt_0239" x="1053507.0262256605" y="6356642.919390237" >
		</node>
		<node id="pt_0240" x="1064229.3521693884" y="6354042.267501622" >
		</node>
		<node id="pt_0241" x="1064201.5289911737" y="6354061.006582899" >
		</node>
		<node id="pt_0242" x="1058371.9154718053" y="6350801.907367265" >
		</node>
		<node id="pt_0243" x="1058327.4471736234" y="6350784.594418331" >
		</node>
		<node id="pt_0244" x="1055431.3179550967" y="6349519.830596627" >
		</node>
		<node id="pt_0245" x="1055411.3296878338" y="6349503.602701028" >
		</node>
		<node id="pt_0246" x="1052733.55922858" y="6360131.815058107" >
		</node>
		<node id="pt_0247" x="1052778.427214601" y="6360181.8349309005" >
		</node>
		<node id="pt_0248" x="1059507.8014117698" y="6344923.128680363" >
		</node>
		<node id="pt_0249" x="1059510.361233526" y="6344908.816558565" >
		</node>
		<node id="pt_0250" x="1056906.947230725" y="6347382.977090026" >
		</node>
		<node id="pt_0251" x="1057797.9298453918" y="6347399.831650489" >
		</node>
		<node id="pt_0252" x="1052953.452201404" y="6351569.395263456" >
		</node>
		<node id="pt_0253" x="1052907.5804759741" y="6351457.253013888" >
		</node>
		<node id="pt_0254" x="1051485.592508553" y="6358099.082990276" >
		</node>
		<node id="pt_0255" x="1051353.051110779" y="6358152.292007245" >
		</node>
		<node id="pt_0257" x="1057160.9968612245" y="6348175.067555676" >
		</node>
		<node id="pt_0258" x="1064543.2353319288" y="6353716.525993426" >
		</node>
		<node id="pt_0259" x="1053198.5106628581" y="6349444.537546288" >
		</node>
		<node id="pt_0260" x="1060721.4857047827" y="6352515.494711764" >
		</node>
		<node id="pt_0261" x="1058379.360311896" y="6344732.887536539" >
		</node>
		<node id="pt_0262" x="1058269.8723432967" y="6344839.837242835" >
		</node>
		<node id="pt_0263" x="1048242.5980303907" y="6360657.193196623" >
		</node>
		<node id="pt_0264" x="1050508.9811695279" y="6362101.84471919" >
		</node>
		<node id="pt_0265" x="1050541.6526760915" y="6362078.051241568" >
		</node>
		<node id="pt_0266" x="1052977.8336728062" y="6355069.869237062" >
		</node>
		<node id="pt_0268" x="1054310.0067793904" y="6350114.994479181" >
		</node>
		<node id="pt_0269" x="1054289.1399871712" y="6350114.437871164" >
		</node>
		<node id="pt_0270" x="1054708.5184654403" y="6349731.254243413" >
		</node>
		<node id="pt_0271" x="1055513.979614624" y="6349194.995351175" >
		</node>
		<node id="pt_0272" x="1055192.4872494477" y="6349404.166480442" >
		</node>
		<node id="pt_0273" x="1054737.1346854358" y="6349752.02416884" >
		</node>
		<node id="pt_0274" x="1055565.484396466" y="6349247.048011242" >
		</node>
		<node id="pt_0275" x="1055454.7913432948" y="6348245.554043007" >
		</node>
		<node id="pt_0276" x="1055649.6945403833" y="6348098.222644736" >
		</node>
		<node id="pt_0277" x="1052982.7491644933" y="6354009.637581673" >
		</node>
		<node id="pt_0278" x="1053013.970126888" y="6353983.39994326" >
		</node>
		<node id="pt_0279" x="1058011.0571923698" y="6350210.544278278" >
		</node>
		<node id="pt_0280" x="1058019.4929747505" y="6350175.604267949" >
		</node>
		<node id="pt_0281" x="1055833.890185867" y="6348340.695403458" >
		</node>
		<node id="pt_0282" x="1051985.685376681" y="6357840.522975616" >
		</node>
		<node id="pt_0283" x="1051917.8976902934" y="6357910.320786369" >
		</node>
		<node id="pt_0284" x="1054533.4929172774" y="6351088.793883304" >
		</node>
		<node id="pt_0288" x="1060647.911940872" y="6348570.667886495" >
		</node>
		<node id="pt_0289" x="1060724.3356447653" y="6348611.526821435" >
		</node>
		<node id="pt_0290" x="1055709.3280160327" y="6355511.869920723" >
		</node>
		<node id="pt_0291" x="1055196.0213024805" y="6355263.160754399" >
		</node>
		<node id="pt_0291a" x="1055101.089763301" y="6355191.696635626" >
		</node>
		<node id="pt_0292" x="1055137.6472538472" y="6355198.893152791" >
		</node>
		<node id="pt_0293" x="1053711.8416101895" y="6360463.394231825" >
		</node>
		<node id="pt_0294" x="1053767.3767360323" y="6360488.935982196" >
		</node>
		<node id="pt_0295" x="1060395.9221442358" y="6356457.844655077" >
		</node>
		<node id="pt_0296" x="1060377.6485121252" y="6356460.989251493" >
		</node>
		<node id="pt_0297" x="1060156.0199020295" y="6352032.410799958" >
		</node>
		<node id="pt_0298" x="1060158.2905769474" y="6352042.869985864" >
		</node>
		<node id="pt_0299" x="1060189.3237835858" y="6343862.0729751075" >
		</node>
		<node id="pt_0300" x="1060398.9013611483" y="6344158.945970624" >
		</node>
		<node id="pt_0301" x="1059940.071013772" y="6354014.911270174" >
		</node>
		<node id="pt_0302" x="1061186.0010075998" y="6353159.708518415" >
		</node>
		<node id="pt_0303" x="1061243.1329154049" y="6353147.209082861" >
		</node>
		<node id="pt_0304" x="1051294.5281013236" y="6360429.595739707" >
		</node>
		<node id="pt_0305" x="1051287.2309033214" y="6360483.855723522" >
		</node>
		<node id="pt_0306" x="1057094.1537443441" y="6350425.685480238" >
		</node>
		<node id="pt_0307" x="1057018.615312206" y="6349340.874706006" >
		</node>
		<node id="pt_0308" x="1056953.2339988751" y="6349427.868908343" >
		</node>
		<node id="pt_0309" x="1057333.3178558513" y="6350379.149580658" >
		</node>
		<node id="pt_0310" x="1056864.1493348791" y="6349425.960835536" >
		</node>
		<node id="pt_0311" x="1048652.0995653342" y="6360121.3134388095" >
		</node>
		<node id="pt_0312" x="1048655.7940238062" y="6360089.117991805" >
		</node>
		<node id="pt_0313" x="1053591.1015265984" y="6356945.142494727" >
		</node>
		<node id="pt_0314" x="1053627.506690417" y="6356962.45512365" >
		</node>
		<node id="pt_0315" x="1056133.9234297867" y="6352883.480743825" >
		</node>
		<node id="pt_0316" x="1056066.5928485352" y="6353199.107089982" >
		</node>
		<node id="pt_0317" x="1054100.1107285577" y="6353047.38325748" >
		</node>
		<node id="pt_0318" x="1054036.7842195113" y="6353129.042070582" >
		</node>
		<node id="pt_0319" x="1052566.259985519" y="6359804.85549693" >
		</node>
		<node id="pt_0320" x="1052573.1267633974" y="6359858.770344295" >
		</node>
		<node id="pt_0321" x="1058981.8455413976" y="6356553.761716957" >
		</node>
		<node id="pt_0322" x="1058959.9512571676" y="6356560.930069742" >
		</node>
		<node id="pt_0323" x="1049728.4561613519" y="6360921.592404961" >
		</node>
		<node id="pt_0324" x="1049732.4940855145" y="6360905.224523251" >
		</node>
		<node id="pt_0325" x="1064253.0761974142" y="6341387.859556976" >
		</node>
		<node id="pt_0326" x="1064232.1560939406" y="6341373.720421244" >
		</node>
		<node id="pt_0328" x="1054450.137893171" y="6360578.972095932" >
		</node>
		<node id="pt_0329" x="1054319.8099806043" y="6360570.3665162055" >
		</node>
		<node id="pt_0330" x="1051104.0537466148" y="6362128.863224227" >
		</node>
		<node id="pt_0331" x="1051099.3114270105" y="6362086.512283822" >
		</node>
		<node id="pt_0332" x="1063547.1417451454" y="6354732.571181222" >
		</node>
		<node id="pt_0333" x="1063544.5532954258" y="6354760.415020892" >
		</node>
		<node id="pt_0336" x="1051212.417361423" y="6359875.1625463115" >
		</node>
		<node id="pt_0337" x="1051204.962522997" y="6359839.212009243" >
		</node>
		<node id="pt_0338" x="1061017.4648868083" y="6353848.351120563" >
		</node>
		<node id="pt_0339" x="1061004.0072985408" y="6354010.047410345" >
		</node>
		<node id="pt_0340" x="1054046.1216276293" y="6350583.408751487" >
		</node>
		<node id="pt_0341" x="1059852.638466574" y="6352532.406497657" >
		</node>
		<node id="pt_0342" x="1064874.2451240376" y="6353553.331331048" >
		</node>
		<node id="pt_0342a" x="1064883.625841502" y="6353543.340596606" >
		</node>
		<node id="pt_0343" x="1059888.463144904" y="6352536.157921375" >
		</node>
		<node id="pt_0344" x="1055278.6208574455" y="6350892.80141751" >
		</node>
		<node id="pt_0345" x="1055396.7023759023" y="6350597.554537307" >
		</node>
		<node id="pt_0346" x="1052740.503947312" y="6350849.686521831" >
		</node>
		<node id="pt_0347" x="1052742.5531061005" y="6350889.419766928" >
		</node>
		<node id="pt_0348" x="1052216.8233859604" y="6357803.981345629" >
		</node>
		<node id="pt_0349" x="1052224.7110718118" y="6357827.590933775" >
		</node>
		<node id="pt_0350" x="1056552.9199679452" y="6352976.278572904" >
		</node>
		<node id="pt_0351" x="1057597.6865758875" y="6348486.772523518" >
		</node>
		<node id="pt_0352" x="1057666.1587732853" y="6348436.285382383" >
		</node>
		<node id="pt_0355" x="1055453.8535229242" y="6360440.8542910805" >
		</node>
		<node id="pt_0356" x="1055457.4907390862" y="6360463.898887568" >
		</node>
		<node id="pt_0357" x="1060321.415731811" y="6348297.282721968" >
		</node>
		<node id="pt_0358" x="1060345.7796951404" y="6348303.982089198" >
		</node>
		<node id="pt_0359" x="1059032.2601060541" y="6347535.641569579" >
		</node>
		<node id="pt_0360" x="1058837.059511369" y="6347542.975580688" >
		</node>
		<node id="pt_0361" x="1056641.338514664" y="6354209.43299757" >
		</node>
		<node id="pt_0363" x="1060767.0679400703" y="6354117.5509110745" >
		</node>
		<node id="pt_0365" x="1053523.0194709008" y="6355073.411249612" >
		</node>
		<node id="pt_0366" x="1054954.8089360758" y="6347981.946161064" >
		</node>
		<node id="pt_0368" x="1060090.7839171765" y="6346643.116765225" >
		</node>
		<node id="pt_0369" x="1057725.899386772" y="6345417.9304645555" >
		</node>
		<node id="pt_0370" x="1057704.351191936" y="6345381.186850238" >
		</node>
		<node id="pt_0371" x="1058917.5544672166" y="6350068.596554434" >
		</node>
		<node id="pt_0372" x="1058866.6212977553" y="6350112.422982191" >
		</node>
		<node id="pt_0373" x="1053099.471569784" y="6349237.316111524" >
		</node>
		<node id="pt_0374" x="1053138.463180373" y="6352198.563568952" >
		</node>
		<node id="pt_0375" x="1053077.3953252893" y="6352034.766805851" >
		</node>
		<node id="pt_0376" x="1059287.6095305444" y="6344195.228726708" >
		</node>
		<node id="pt_0377" x="1059167.1697438199" y="6344291.655074047" >
		</node>
		<node id="pt_0378" x="1060956.2839351017" y="6350694.559294345" >
		</node>
		<node id="pt_0379a" x="1060737.1684660246" y="6350733.478385545" >
		</node>
		<node id="pt_0380" x="1057015.733302245" y="6351427.638912629" >
		</node>
		<node id="pt_0381" x="1056546.7305061298" y="6347525.958572359" >
		</node>
		<node id="pt_0382" x="1056456.6957510058" y="6347622.033454351" >
		</node>
		<node id="pt_0383" x="1053197.6817572592" y="6353743.189565145" >
		</node>
		<node id="pt_0384" x="1053197.2747328752" y="6353769.065310538" >
		</node>
		<node id="pt_0387" x="1053318.5934748214" y="6353434.773612223" >
		</node>
		<node id="pt_0388" x="1053333.0073751616" y="6353469.409656807" >
		</node>
		<node id="pt_0389" x="1062576.1142181237" y="6355461.196847357" >
		</node>
		<node id="pt_0390" x="1062586.8387393286" y="6355463.79391407" >
		</node>
		<node id="pt_0392" x="1056616.8932641565" y="6348552.484625081" >
		</node>
		<node id="pt_0393" x="1059041.5883028437" y="6348161.634082062" >
		</node>
		<node id="pt_0394" x="1059020.6119734696" y="6348225.318063344" >
		</node>
		<node id="pt_0396" x="1062510.8384747142" y="6342356.753656297" >
		</node>
		<node id="pt_0397" x="1062376.7990667077" y="6342479.452459065" >
		</node>
		<node id="pt_0398" x="1062406.2738708146" y="6342340.241389274" >
		</node>
		<node id="pt_0399" x="1055870.6276202821" y="6351543.301106949" >
		</node>
		<node id="pt_0400" x="1056064.1147913497" y="6351660.792684842" >
		</node>
		<node id="pt_0401" x="1057998.0269498117" y="6345020.649176988" >
		</node>
		<node id="pt_0402" x="1058450.8431510632" y="6345734.870170676" >
		</node>
		<node id="pt_0403" x="1058343.3588114071" y="6345858.999887638" >
		</node>
		<node id="pt_0404" x="1058038.6343201231" y="6344930.3022985775" >
		</node>
		<node id="pt_0405" x="1055896.5265993858" y="6353518.874859193" >
		</node>
		<node id="pt_0406" x="1055915.5909058822" y="6353541.749865361" >
		</node>
		<node id="pt_0407" x="1060468.775607181" y="6350817.570425324" >
		</node>
		<node id="pt_0408" x="1060420.4682077887" y="6351077.1402869" >
		</node>
		<node id="pt_0409" x="1060343.4258671855" y="6350846.730272868" >
		</node>
		<node id="pt_0410" x="1064943.9429831668" y="6340640.959975318" >
		</node>
		<node id="pt_0411" x="1064964.8640165217" y="6340628.032614619" >
		</node>
		<node id="pt_0412" x="1057033.670372174" y="6347325.6981562" >
		</node>
		<node id="pt_0413" x="1059784.167886152" y="6349056.445441227" >
		</node>
		<node id="pt_0414" x="1059763.3661291671" y="6348932.951068745" >
		</node>
		<node id="pt_0415" x="1053447.230552373" y="6353823.0202907715" >
		</node>
		<node id="pt_0416" x="1053548.899333774" y="6353913.381962882" >
		</node>
		<node id="pt_0417" x="1053843.5515265693" y="6354055.689116314" >
		</node>
		<node id="pt_0418" x="1056399.096868076" y="6351924.854668452" >
		</node>
		<node id="pt_0419" x="1056360.8346217286" y="6351907.273751588" >
		</node>
		<node id="pt_0420" x="1053868.8435257503" y="6354096.304671906" >
		</node>
		<node id="pt_0421" x="1056053.6169237262" y="6355018.368110766" >
		</node>
		<node id="pt_0422" x="1056086.7004230015" y="6355023.974923173" >
		</node>
		<node id="pt_0423" x="1056731.1606584825" y="6353351.0996230645" >
		</node>
		<node id="pt_0424" x="1060334.3076313487" y="6354094.597058898" >
		</node>
		<node id="pt_0425" x="1060213.4445019485" y="6344411.153580136" >
		</node>