<?xml version="1.0" encoding="UTF-8"?>
<!DOCTYPE network SYSTEM "http://www.matsim.org/files/dtd/network_v1.dtd">
<network>

<!-- ====================================================================== -->

	<nodes>
		<node id="1" x="0.0" y="0.0" />
		<node id="2" x="300.0" y="0.0" />
		<node id="3" x="600.0" y="300.0" />
		<node id="4" x="900.0" y="300.0" />
		<node id="5" x="1200.0" y="0.0" />
		<node id="6" x="1500.0" y="0.0" />
		<node id="7" x="600.0" y="-300.0" />
		<node id="8" x="900.0" y="-300.0" />
	</nodes>

<!-- ====================================================================== -->

	<links capperiod="01:00:00" effectivecellsize="7.5" effectivelanewidth="1.0">
		<link id="12" from="1" to="2" length="300.0" freespeed="15.0" capacity="1800.0" permlanes="1.0" oneway="1" modes="car" />
		<link id="21" from="2" to="1" length="300.0" freespeed="15.0" capacity="1800.0" permlanes="2.0" oneway="1" modes="car" />
		<link id="23" from="2" to="3" length="300.0" freespeed="15.0" capacity="1800.0" permlanes="1.0" oneway="1" modes="car" />
		<link id="27" from="2" to="7" length="300.0" freespeed="15.0" capacity="1800.0" permlanes="1.0" oneway="1" modes="car" />
		<link id="32" from="3" to="2" length="300.0" freespeed="15.0" capacity="1800.0" permlanes="1.0" oneway="1" modes="car" />
		<link id="34" from="3" to="4" length="300.0" freespeed="15.0" capacity="1800.0" permlanes="1.0" oneway="1" modes="car" />
		<link id="43" from="4" to="3" length="300.0" freespeed="15.0" capacity="1800.0" permlanes="1.0" oneway="1" modes="car" />
		<link id="45" from="4" to="5" length="300.0" freespeed="15.0" capacity="1800.0" permlanes="1.0" oneway="1" modes="car" />
		<link id="54" from="5" to="4" length="300.0" freespeed="15.0" capacity="1800.0" permlanes="1.0" oneway="1" modes="car" />
		<link id="56" from="5" to="6" length="300.0" freespeed="15.0" capacity="1800.0" permlanes="2.0" oneway="1" modes="car" />
		<link id="58" from="5" to="8" length="300.0" freespeed="15.0" capacity="1800.0" permlanes="1.0" oneway="1" modes="car" />
		<link id="65" from="6" to="5" length="300.0" freespeed="15.0" capacity="1800.0" permlanes="1.0" oneway="1" modes="car" />
		<link id="72" from="7" to="2" length="300.0" freespeed="15.0" capacity="1800.0" permlanes="1.0" oneway="1" modes="car" />
		<link id="78" from="7" to="8" length="300.0" freespeed="15.0" capacity="1800.0" permlanes="1.0" oneway="1" modes="car" />
		<link id="85" from="8" to="5" length="300.0" freespeed="15.0" capacity="1800.0" permlanes="1.0" oneway="1" modes="car" />
		<link id="87" from="8" to="7" length="300.0" freespeed="15.0" capacity="1800.0" permlanes="1.0" oneway="1" modes="car" />
	</links>

<!-- ====================================================================== -->

</network>
